data/Example_Data/Output/9/1.dss
Clear
New Circuit.Realistic_LV_Circuit basekV=0.4 pu=1.0 phases=3 bus1=sourcebus

New Line.SourceToBus0 Bus1=sourcebus Bus2=Bus0 Phases=3 R1=0.01 X1=0.05 Length=0.0001 Units=m

! Line definitions
New Line.Line1 bus1=Bus0 bus2=Bus19 phases=3 length=1 units=km rmatrix=[0.00759078 | 0 0.00759078 | 0 0 0.00759078] xmatrix=[0.00010000 | 0 0.00010000 | 0 0 0.00010000]
New Line.Line2 bus1=Bus19 bus2=Bus20 phases=3 length=1 units=km rmatrix=[0.00010000 | 0 0.00010000 | 0 0 0.00010000] xmatrix=[0.02361337 | 0 0.02361337 | 0 0 0.02361337]
New Line.Line3 bus1=Bus20 bus2=Bus21 phases=3 length=1 units=km rmatrix=[0.01202800 | 0 0.01202800 | 0 0 0.01202800] xmatrix=[0.01967373 | 0 0.01967373 | 0 0 0.01967373]
New Line.Line4 bus1=Bus21 bus2=Bus23 phases=3 length=1 units=km rmatrix=[0.00010000 | 0 0.00010000 | 0 0 0.00010000] xmatrix=[0.00010000 | 0 0.00010000 | 0 0 0.00010000]
New Line.Line5 bus1=Bus23 bus2=Bus1 phases=3 length=1 units=km rmatrix=[0.11881786 | 0 0.11881786 | 0 0 0.11881786] xmatrix=[0.00010000 | 0 0.00010000 | 0 0 0.00010000]
New Line.Line6 bus1=Bus23 bus2=Bus14 phases=3 length=1 units=km rmatrix=[0.00010000 | 0 0.00010000 | 0 0 0.00010000] xmatrix=[0.00010000 | 0 0.00010000 | 0 0 0.00010000]
New Line.Line7 bus1=Bus14 bus2=Bus2 phases=3 length=1 units=km rmatrix=[0.06233920 | 0 0.06233920 | 0 0 0.06233920] xmatrix=[0.00010000 | 0 0.00010000 | 0 0 0.00010000]
New Line.Line8 bus1=Bus21 bus2=Bus3 phases=3 length=1 units=km rmatrix=[0.09646490 | 0 0.09646490 | 0 0 0.09646490] xmatrix=[0.00010000 | 0 0.00010000 | 0 0 0.00010000]
New Line.Line9 bus1=Bus20 bus2=Bus4 phases=3 length=1 units=km rmatrix=[0.00010000 | 0 0.00010000 | 0 0 0.00010000] xmatrix=[0.00010000 | 0 0.00010000 | 0 0 0.00010000]
New Line.Line10 bus1=Bus19 bus2=Bus18 phases=3 length=1 units=km rmatrix=[0.00686632 | 0 0.00686632 | 0 0 0.00686632] xmatrix=[0.03035016 | 0 0.03035016 | 0 0 0.03035016]
New Line.Line11 bus1=Bus18 bus2=Bus15 phases=3 length=1 units=km rmatrix=[0.04541123 | 0 0.04541123 | 0 0 0.04541123] xmatrix=[0.22312830 | 0 0.22312830 | 0 0 0.22312830]
New Line.Line12 bus1=Bus15 bus2=Bus5 phases=3 length=1 units=km rmatrix=[0.08058773 | 0 0.08058773 | 0 0 0.08058773] xmatrix=[0.21095445 | 0 0.21095445 | 0 0 0.21095445]
New Line.Line13 bus1=Bus15 bus2=Bus16 phases=3 length=1 units=km rmatrix=[0.02927739 | 0 0.02927739 | 0 0 0.02927739] xmatrix=[0.00010000 | 0 0.00010000 | 0 0 0.00010000]
New Line.Line14 bus1=Bus16 bus2=Bus17 phases=3 length=1 units=km rmatrix=[0.00010000 | 0 0.00010000 | 0 0 0.00010000] xmatrix=[0.00010000 | 0 0.00010000 | 0 0 0.00010000]
New Line.Line15 bus1=Bus17 bus2=Bus22 phases=3 length=1 units=km rmatrix=[0.00825918 | 0 0.00825918 | 0 0 0.00825918] xmatrix=[0.00010000 | 0 0.00010000 | 0 0 0.00010000]
New Line.Line16 bus1=Bus22 bus2=Bus6 phases=3 length=1 units=km rmatrix=[0.00010000 | 0 0.00010000 | 0 0 0.00010000] xmatrix=[0.00010000 | 0 0.00010000 | 0 0 0.00010000]
New Line.Line17 bus1=Bus22 bus2=Bus7 phases=3 length=1 units=km rmatrix=[0.04351538 | 0 0.04351538 | 0 0 0.04351538] xmatrix=[0.41137377 | 0 0.41137377 | 0 0 0.41137377]
New Line.Line18 bus1=Bus14 bus2=Bus8 phases=3 length=1 units=km rmatrix=[0.00010000 | 0 0.00010000 | 0 0 0.00010000] xmatrix=[0.00015454 | 0 0.00015454 | 0 0 0.00015454]
New Line.Line19 bus1=Bus18 bus2=Bus9 phases=3 length=1 units=km rmatrix=[0.00010000 | 0 0.00010000 | 0 0 0.00010000] xmatrix=[0.21611685 | 0 0.21611685 | 0 0 0.21611685]
New Line.Line20 bus1=Bus22 bus2=Bus10 phases=3 length=1 units=km rmatrix=[0.00010000 | 0 0.00010000 | 0 0 0.00010000] xmatrix=[0.23155733 | 0 0.23155733 | 0 0 0.23155733]
New Line.Line21 bus1=Bus17 bus2=Bus11 phases=3 length=1 units=km rmatrix=[0.05413414 | 0 0.05413414 | 0 0 0.05413414] xmatrix=[0.12440954 | 0 0.12440954 | 0 0 0.12440954]
New Line.Line22 bus1=Bus20 bus2=Bus12 phases=3 length=1 units=km rmatrix=[0.00010000 | 0 0.00010000 | 0 0 0.00010000] xmatrix=[0.00010000 | 0 0.00010000 | 0 0 0.00010000]
New Line.Line23 bus1=Bus16 bus2=Bus13 phases=3 length=1 units=km rmatrix=[0.04647507 | 0 0.04647507 | 0 0 0.04647507] xmatrix=[0.14042112 | 0 0.14042112 | 0 0 0.14042112]

! Load definitions
New Load.Load1 bus1=Bus1 phases=1 kv=0.23094 kvar=0.15 pf=0.95 vminpu=0.8 vmaxpu=1.5
New Load.Load2 bus1=Bus2 phases=1 kv=0.23094 kvar=0.15 pf=0.95 vminpu=0.8 vmaxpu=1.5
New Load.Load3 bus1=Bus3 phases=1 kv=0.23094 kvar=0.15 pf=0.95 vminpu=0.8 vmaxpu=1.5
New Load.Load4 bus1=Bus4 phases=1 kv=0.23094 kvar=0.15 pf=0.95 vminpu=0.8 vmaxpu=1.5
New Load.Load5 bus1=Bus5 phases=1 kv=0.23094 kvar=0.15 pf=0.95 vminpu=0.8 vmaxpu=1.5
New Load.Load6 bus1=Bus6 phases=1 kv=0.23094 kvar=0.15 pf=0.95 vminpu=0.8 vmaxpu=1.5
New Load.Load7 bus1=Bus7 phases=1 kv=0.23094 kvar=0.15 pf=0.95 vminpu=0.8 vmaxpu=1.5
New Load.Load8 bus1=Bus8 phases=1 kv=0.23094 kvar=0.15 pf=0.95 vminpu=0.8 vmaxpu=1.5
New Load.Load9 bus1=Bus9 phases=1 kv=0.23094 kvar=0.15 pf=0.95 vminpu=0.8 vmaxpu=1.5
New Load.Load10 bus1=Bus10 phases=1 kv=0.23094 kvar=0.15 pf=0.95 vminpu=0.8 vmaxpu=1.5
New Load.Load11 bus1=Bus11 phases=1 kv=0.23094 kvar=0.15 pf=0.95 vminpu=0.8 vmaxpu=1.5
New Load.Load12 bus1=Bus12 phases=1 kv=0.23094 kvar=0.15 pf=0.95 vminpu=0.8 vmaxpu=1.5
New Load.Load13 bus1=Bus13 phases=1 kv=0.23094 kvar=0.15 pf=0.95 vminpu=0.8 vmaxpu=1.5

! Community Battery Lines
New Line.Line.L_Bat1 bus1=Bus19 bus2=Bat1_Node phases=1 length=1.0 units=km r1=0.00400000 x1=0.00200000 enabled=false
New Line.Line.L_Bat2 bus1=Bus22 bus2=Bat2_Node phases=1 length=1.0 units=km r1=0.00400000 x1=0.00200000 enabled=false

! Community Battery Loads
New load.Com_Bat1_phase1 phases=1 bus1=Bat1_Node.1 pf=1 conn=w kv=0.23 kw=0 Vminpu=0.94 Vmaxpu=1.10 model=1 status=variable enabled=False
New load.Com_Bat1_phase2 phases=1 bus1=Bat1_Node.2 pf=1 conn=w kv=0.23 kw=0 Vminpu=0.94 Vmaxpu=1.10 model=1 status=variable enabled=False
New load.Com_Bat1_phase3 phases=1 bus1=Bat1_Node.3 pf=1 conn=w kv=0.23 kw=0 Vminpu=0.94 Vmaxpu=1.10 model=1 status=variable enabled=False
New load.Com_Bat2_phase1 phases=1 bus1=Bat2_Node.1 pf=1 conn=w kv=0.23 kw=0 Vminpu=0.94 Vmaxpu=1.10 model=1 status=variable enabled=False
New load.Com_Bat2_phase2 phases=1 bus1=Bat2_Node.2 pf=1 conn=w kv=0.23 kw=0 Vminpu=0.94 Vmaxpu=1.10 model=1 status=variable enabled=False
New load.Com_Bat2_phase3 phases=1 bus1=Bat2_Node.3 pf=1 conn=w kv=0.23 kw=0 Vminpu=0.94 Vmaxpu=1.10 model=1 status=variable enabled=False

! Simulation parameters
Set VoltageBases=0.4
CalcVoltageBases
Solve
